Version 4
SHEET 1 3068 2420
WIRE -128 -352 -256 -352
WIRE -96 -352 -128 -352
WIRE -16 -352 -96 -352
WIRE 96 -352 -16 -352
WIRE 224 -352 96 -352
WIRE 352 -352 304 -352
WIRE 832 -352 352 -352
WIRE 1040 -352 960 -352
WIRE 1152 -352 1040 -352
WIRE 1248 -352 1152 -352
WIRE -256 -336 -256 -352
WIRE 1040 -336 1040 -352
WIRE 1152 -336 1152 -352
WIRE 832 -320 832 -352
WIRE 304 -272 192 -272
WIRE -256 -240 -256 -256
WIRE 784 -240 480 -240
WIRE 1040 -240 1040 -272
WIRE 1152 -240 1152 -272
WIRE 880 -224 880 -352
WIRE 880 -224 832 -224
WIRE 352 -208 352 -256
WIRE 352 -208 304 -208
WIRE 1248 -160 1248 -352
WIRE 352 -112 352 -128
WIRE 384 -112 352 -112
WIRE 352 -80 352 -112
WIRE 384 -48 384 -112
WIRE 384 -48 368 -48
WIRE 192 -16 192 -272
WIRE 304 -16 304 -208
WIRE 368 -16 368 -48
WIRE 480 -16 480 -240
WIRE -128 0 -128 -352
WIRE 96 32 96 -352
WIRE 128 32 96 32
WIRE 880 32 880 -224
WIRE 880 32 544 32
WIRE 1248 32 1248 -80
WIRE -128 96 -128 80
WIRE 128 96 -128 96
WIRE 960 96 960 -352
WIRE 960 96 544 96
WIRE -128 112 -128 96
WIRE 128 160 64 160
WIRE 752 160 544 160
WIRE 960 160 960 96
WIRE 960 160 816 160
WIRE -128 208 -128 192
WIRE 1248 208 1248 96
WIRE 64 224 64 160
WIRE 64 224 0 224
WIRE 128 224 64 224
WIRE 560 224 544 224
WIRE 656 224 640 224
WIRE 1248 224 1248 208
WIRE 128 288 32 288
WIRE 752 288 544 288
WIRE 960 288 960 160
WIRE 960 288 832 288
WIRE 752 336 752 288
WIRE 800 336 752 336
WIRE 128 352 96 352
WIRE 592 352 544 352
WIRE 640 352 592 352
WIRE 736 352 720 352
WIRE 592 368 592 352
WIRE 736 368 736 352
WIRE 96 400 96 352
WIRE 208 416 208 400
WIRE 336 416 336 400
WIRE 448 416 448 400
WIRE 592 448 592 432
WIRE 736 448 736 432
WIRE 208 496 208 480
WIRE 448 496 448 480
WIRE 96 544 96 480
WIRE 800 544 800 336
WIRE 800 544 96 544
WIRE 32 576 32 288
WIRE 960 576 960 288
WIRE 960 576 32 576
FLAG 1248 -352 OUT
FLAG 208 496 0
FLAG 592 448 0
FLAG 736 448 0
FLAG -128 208 0
FLAG 656 224 0
FLAG 448 496 0
FLAG 336 416 0
FLAG -64 224 0
FLAG 1040 -240 0
FLAG -256 -240 0
FLAG 1152 -240 0
FLAG -256 -352 IN
FLAG 352 -80 0
FLAG 1248 208 0
SYMBOL voltage -256 -352 R0
WINDOW 123 0 0 Left 2
WINDOW 39 24 44 Left 2
SYMATTR SpiceLine Rser=0
SYMATTR InstName V1
SYMATTR Value 6
SYMBOL res -144 96 R0
SYMATTR InstName R1
SYMATTR Value 10K
SYMBOL res -144 -16 R0
SYMATTR InstName R2
SYMATTR Value 13.3K
SYMBOL res 544 208 M90
WINDOW 0 0 56 VBottom 2
WINDOW 3 32 56 VTop 2
SYMATTR InstName R3
SYMATTR Value 88.7K
SYMBOL cap 0 208 R90
WINDOW 0 0 32 VBottom 2
WINDOW 3 32 32 VTop 2
SYMATTR InstName C1
SYMATTR Value 2.2µ
SYMATTR SpiceLine Rser=2m
SYMBOL cap 192 416 R0
SYMATTR InstName C2
SYMATTR Value 47n
SYMATTR SpiceLine Rser=2m
SYMBOL cap 432 416 R0
SYMATTR InstName C3
SYMATTR Value 10n
SYMATTR SpiceLine Rser=2m
SYMBOL cap 576 368 R0
SYMATTR InstName C4
SYMATTR Value 100p
SYMBOL cap 720 368 R0
SYMATTR InstName C5
SYMATTR Value 3.3n
SYMBOL res 624 368 R270
WINDOW 0 32 56 VTop 2
WINDOW 3 0 56 VBottom 2
SYMATTR InstName R4
SYMATTR Value 11.5K
SYMBOL pmos 784 -320 R0
SYMATTR InstName Q2
SYMATTR Value Si4401DY
SYMBOL polcap 1136 -272 M180
WINDOW 0 24 57 Left 2
WINDOW 3 24 8 Left 2
SYMATTR InstName C8
SYMATTR Value 330µ
SYMATTR SpiceLine Rser=16m
SYMBOL cap 1024 -336 R0
SYMATTR InstName C9
SYMATTR Value 200µ
SYMATTR SpiceLine V=6.3 Irms=0 Rser=0.001 Lser=0
SYMBOL PowerProducts\\LT8710 336 192 R0
SYMATTR InstName U1
SYMBOL res 976 -368 R90
WINDOW 0 0 56 VBottom 2
WINDOW 3 32 56 VTop 2
SYMATTR InstName R5
SYMATTR Value 5m
SYMBOL res 848 272 R90
WINDOW 0 0 56 VBottom 2
WINDOW 3 32 56 VTop 2
SYMATTR InstName R7
SYMATTR Value 130k
SYMBOL cap 816 144 R90
WINDOW 0 0 32 VBottom 2
WINDOW 3 32 32 VTop 2
SYMATTR InstName C6
SYMATTR Value 2.2
SYMATTR SpiceLine Rser=2.2m
SYMBOL nmos 304 -352 R0
SYMATTR InstName M1
SYMATTR Value Si7336ADP
SYMBOL ind2 320 -368 R90
WINDOW 0 4 56 VBottom 2
WINDOW 3 32 56 VTop 2
SYMATTR InstName L1
SYMATTR Value 1.3µ
SYMATTR Type ind
SYMBOL res 336 -224 R0
SYMATTR InstName R6
SYMATTR Value 1m
SYMBOL cap -32 -352 R0
SYMATTR InstName C10
SYMATTR Value 500µ
SYMBOL cap -112 -352 R0
SYMATTR InstName C11
SYMATTR Value 200µ
SYMBOL res 80 384 R0
SYMATTR InstName R8
SYMATTR Value 1000k
SYMBOL cap 1232 32 R0
SYMATTR InstName C7
SYMATTR Value 0.005
SYMBOL res 1232 -176 R0
SYMATTR InstName R9
SYMATTR Value 0.01
TEXT 872 344 Left 2 !.tran 10m startup
