Version 4
SHEET 1 3068 2420
WIRE 640 -448 640 -528
WIRE -128 -352 -256 -352
WIRE -64 -352 -128 -352
WIRE 0 -352 -64 -352
WIRE 96 -352 0 -352
WIRE 224 -352 96 -352
WIRE 352 -352 304 -352
WIRE 464 -352 464 -432
WIRE 464 -352 352 -352
WIRE 528 -352 528 -432
WIRE 640 -352 640 -368
WIRE 640 -352 528 -352
WIRE 832 -352 640 -352
WIRE 1040 -352 960 -352
WIRE 1152 -352 1040 -352
WIRE 1248 -352 1152 -352
WIRE -256 -336 -256 -352
WIRE 1040 -336 1040 -352
WIRE 1152 -336 1152 -352
WIRE 1248 -336 1248 -352
WIRE 832 -320 832 -352
WIRE -64 -304 -64 -352
WIRE 0 -304 0 -352
WIRE 304 -272 192 -272
WIRE -256 -240 -256 -256
WIRE 784 -240 480 -240
WIRE 1040 -240 1040 -272
WIRE 1152 -240 1152 -272
WIRE -64 -224 -64 -240
WIRE -32 -224 -64 -224
WIRE 0 -224 0 -240
WIRE 0 -224 -32 -224
WIRE 880 -224 880 -352
WIRE 880 -224 832 -224
WIRE 352 -208 352 -256
WIRE 352 -208 304 -208
WIRE -32 -192 -32 -224
WIRE 352 -112 352 -128
WIRE 384 -112 352 -112
WIRE 352 -80 352 -112
WIRE 384 -48 384 -112
WIRE 384 -48 368 -48
WIRE 192 -16 192 -272
WIRE 304 -16 304 -208
WIRE 368 -16 368 -48
WIRE 480 -16 480 -240
WIRE -128 0 -128 -352
WIRE 96 32 96 -352
WIRE 128 32 96 32
WIRE 880 32 880 -224
WIRE 880 32 544 32
WIRE -128 96 -128 80
WIRE 128 96 -128 96
WIRE 960 96 960 -352
WIRE 960 96 544 96
WIRE -128 112 -128 96
WIRE 128 160 64 160
WIRE 752 160 544 160
WIRE 960 160 960 96
WIRE 960 160 816 160
WIRE -128 208 -128 192
WIRE 1248 208 1248 -256
WIRE 64 224 64 160
WIRE 64 224 0 224
WIRE 128 224 64 224
WIRE 560 224 544 224
WIRE 656 224 640 224
WIRE 128 288 32 288
WIRE 752 288 544 288
WIRE 960 288 960 160
WIRE 960 288 832 288
WIRE 592 352 544 352
WIRE 640 352 592 352
WIRE 736 352 720 352
WIRE 592 368 592 352
WIRE 736 368 736 352
WIRE 208 416 208 400
WIRE 336 416 336 400
WIRE 448 416 448 400
WIRE 592 448 592 432
WIRE 736 448 736 432
WIRE 208 496 208 480
WIRE 448 496 448 480
WIRE 32 576 32 288
WIRE 960 576 960 288
WIRE 960 576 32 576
FLAG 1248 -352 OUT
FLAG 208 496 0
FLAG 592 448 0
FLAG 736 448 0
FLAG -128 208 0
FLAG 656 224 0
FLAG 448 496 0
FLAG 336 416 0
FLAG -64 224 0
FLAG 1040 -240 0
FLAG -256 -240 0
FLAG 1152 -240 0
FLAG -256 -352 IN
FLAG 352 -80 0
FLAG 1248 208 0
FLAG 640 -528 0
FLAG -32 -192 0
SYMBOL voltage -256 -352 R0
WINDOW 123 0 0 Left 2
WINDOW 39 24 124 Left 2
SYMATTR InstName V1
SYMATTR Value 4.5
SYMBOL res -144 96 R0
SYMATTR InstName R1
SYMATTR Value 10k
SYMBOL res -144 -16 R0
SYMATTR InstName R2
SYMATTR Value 4.02k
SYMBOL res 544 208 M90
WINDOW 0 0 56 VBottom 2
WINDOW 3 32 56 VTop 2
SYMATTR InstName R3
SYMATTR Value 178k
SYMBOL cap 0 208 R90
WINDOW 0 0 32 VBottom 2
WINDOW 3 32 32 VTop 2
SYMATTR InstName C1
SYMATTR Value 2.2µ
SYMATTR SpiceLine Rser=2m
SYMBOL cap 192 416 R0
SYMATTR InstName C2
SYMATTR Value 47n
SYMATTR SpiceLine Rser=2m
SYMBOL cap 432 416 R0
SYMATTR InstName C3
SYMATTR Value 220n
SYMATTR SpiceLine Rser=2m
SYMBOL cap 576 368 R0
SYMATTR InstName C4
SYMATTR Value 100p
SYMBOL cap 720 368 R0
SYMATTR InstName C5
SYMATTR Value 6.8n
SYMBOL res 624 368 R270
WINDOW 0 32 56 VTop 2
WINDOW 3 0 56 VBottom 2
SYMATTR InstName R4
SYMATTR Value 8.87k
SYMBOL pmos 784 -320 R0
SYMATTR InstName Q2
SYMATTR Value Si4401DY
SYMBOL polcap 1136 -272 M180
WINDOW 0 24 57 Left 2
WINDOW 3 24 8 Left 2
SYMATTR InstName C8
SYMATTR Value 330µ
SYMATTR SpiceLine Rser=16m
SYMBOL cap 1024 -336 R0
SYMATTR InstName C9
SYMATTR Value 400µ
SYMATTR SpiceLine V=6.3 Irms=0 Rser=0.001 Lser=0
SYMBOL res 1232 -352 R0
SYMATTR InstName R10
SYMATTR Value 10
SYMBOL PowerProducts\\LT8710 336 192 R0
SYMATTR InstName U1
SYMBOL res 976 -368 R90
WINDOW 0 0 56 VBottom 2
WINDOW 3 32 56 VTop 2
SYMATTR InstName R5
SYMATTR Value 6m
SYMBOL res 848 272 R90
WINDOW 0 0 56 VBottom 2
WINDOW 3 32 56 VTop 2
SYMATTR InstName R7
SYMATTR Value 45.3k
SYMBOL cap 816 144 R90
WINDOW 0 0 32 VBottom 2
WINDOW 3 32 32 VTop 2
SYMATTR InstName C6
SYMATTR Value 2.2
SYMATTR SpiceLine Rser=2.2m
SYMBOL nmos 304 -352 R0
SYMATTR InstName M1
SYMATTR Value Si7336ADP
SYMBOL ind2 320 -368 R90
WINDOW 0 4 56 VBottom 2
WINDOW 3 32 56 VTop 2
SYMATTR InstName L1
SYMATTR Value 2.9µ
SYMATTR Type ind
SYMBOL res 336 -224 R0
SYMATTR InstName R6
SYMATTR Value 1.5m
SYMBOL ind 656 -352 R180
WINDOW 0 36 80 Left 2
WINDOW 3 36 40 Left 2
SYMATTR InstName L2
SYMATTR Value 2.9µ
SYMBOL cap 528 -368 R90
WINDOW 0 0 32 VBottom 2
WINDOW 3 32 32 VTop 2
SYMATTR InstName C7
SYMATTR Value 10µ
SYMATTR SpiceLine Rser=2m
SYMBOL cap 528 -448 R90
WINDOW 0 0 32 VBottom 2
WINDOW 3 32 32 VTop 2
SYMATTR InstName C10
SYMATTR Value 10µ
SYMATTR SpiceLine Rser=2m
SYMBOL cap -80 -304 R0
SYMATTR InstName C11
SYMATTR Value 220µ
SYMATTR SpiceLine Rser=2m
SYMBOL cap -16 -304 R0
SYMATTR InstName C12
SYMATTR Value 600µ
SYMATTR SpiceLine Rser=2m
TEXT 872 344 Left 2 !.tran 30m startup
